Circuit: * C:\Users\malfonso\cernbox\Documents\_CERN_PARA\1_PROJECTS\High_speed_piezo_drive\4_Simulations\opamp_bridge.asc

Instance "m:u1:10:1": Width narrower than recommended for a level 3 MOSFET.
Instance "m:u1:11:1": Width narrower than recommended for a level 3 MOSFET.
Instance "m:u1:12:1": Width narrower than recommended for a level 3 MOSFET.
Instance "m:u2:10:1": Width narrower than recommended for a level 3 MOSFET.
Instance "m:u2:11:1": Width narrower than recommended for a level 3 MOSFET.
Instance "m:u2:12:1": Width narrower than recommended for a level 3 MOSFET.
Direct Newton iteration failed to find .op point.  (Use ".option noopiter" to skip.)
Starting Gmin stepping
Gmin = 10
Gmin = 1.07374
Gmin = 0.115292
Gmin = 0.0123794
Gmin = 0.00132923
Gmin = 0.000142725
Gmin = 1.5325e-05
Gmin = 1.6455e-06
Gmin = 1.76685e-07
Gmin = 1.89714e-08
Gmin = 2.03704e-09
Gmin = 2.18725e-10
Gmin = 2.34854e-11
Gmin = 2.52173e-12
Gmin = 2.70769e-13
Gmin = 0
Gmin stepping succeeded in finding the operating point.

Changing Tseed to 1e-09
Heightened Def Con from 2e-09 +to 3e-09

Date: Fri Sep 29 14:20:39 2023
Total elapsed time: 1.103 seconds.

tnom = 27
temp = 27
method = modified trap
totiter = 23435
traniter = 22634
tranpoints = 7546
accept = 5089
rejected = 2458
matrix size = 314
fillins = 384
solver = Normal
Avg thread counts: 1.0/3.0/1.1/1.0
Matrix Compiler1: 38.21 KB object code size  7.6/4.9/[3.5]
Matrix Compiler2: 33.32 KB object code size  5.2/5.9/[1.9]

